LAMMPS (15 Jun 2023 - Development - stable_3Mar2020-16308-g8dc3538f6c)
# Testsystem for core-shell model compared to Mitchel and Finchham using KIM
#
# Description:
#
# Modified from non-KIM example in examples/coreshell/in.coreshell
# Thermo outputs should be identical between this KIM example and the above.
# The extra data and commands for "output via chunk method" are omitted.
#
# This example demonstrates usage of OpenKIM Simulator Models (SM) for bonded
# force fields using LAMMPS type labels. Compared to the original core-shell
# example, the SM initializes and provides parameters for pair and bonded interactions,
# as well as charges and masses. The user, therefore, only needs to provide
# the atom positions and bonding topology, and assign correct atom and bond type labels.
# The user must also define core/shell atom groups and the required temp/cs compute and
# thermostat fix_modify.
#
# KIM bond, angle, dihedral and improper type labels must always be dash-separated
# atom type labels, i.e. the bond between atom types `NaS` and `NaC` must have the label `NaS-NaC`
# or `NaC-NaS`.
#
# Documentation for the specific SM, including an enumeration of supported atom types, is here:
# `https://openkim.org/id/Sim_LAMMPS_CoreShell_MitchellFincham_1993_NaCl__SM_672022050407_000`
#
# More information about the KIM SM interface and LAMMPS type labels:
# `https://docs.lammps.org/kim_commands.html`
# `https://docs.lammps.org/Howto_type_labels.html`
#
# Original file: Hendrik Heenen, June 2014
# KIM version: ilia Nikiforov, July 2023
#
# Requirement:
#
# This example requires that the KIM Simulator Model (SM)
# `Sim_LAMMPS_CoreShell_MitchellFincham_1993_NaCl__SM_672022050407_000`
# is installed.  This can be done with the command
#   kim-api-collections-management install user Sim_LAMMPS_CoreShell_MitchellFincham_1993_NaCl__SM_672022050407_000
# If this command does not work, you may need to setup your PATH to find the utility.
# If you installed the kim-api using the LAMMPS CMake build, you can do the following
# (where the current working directory is assumed to be the LAMMPS build directory)
#   source ./kim_build-prefix/bin/kim-api-activate
# If you installed the kim-api using the LAMMPS Make build, you can do the following
# (where the current working directory is assumed to be the LAMMPS src directory)
#   source ../lib/kim/installed-kim-api-X.Y.Z/bin/kim-api-activate
# (where you should relplace X.Y.Z with the appropriate kim-api version number).
#
# Or, see `https://openkim.org/doc/obtaining-models` for alternative options.
#

# ------------------------ INITIALIZATION ----------------------------

dimension	3
boundary	p p p

# ----------------------- ATOM DEFINITION ----------------------------

kim init Sim_LAMMPS_CoreShell_MitchellFincham_1993_NaCl__SM_672022050407_000 metal
#=== KIM is looking for 'Portable Models' in these directories ===
#  1: .
#  2: /home/openkim/.kim-api/2.3.0+GNU.GNU.GNU.2022-12-07-18-54-28/portable-models-dir
#  3: /usr/local/lib/kim-api/portable-models
#=== KIM is looking for 'Simulator Models' in these directories ===
#  1: .
#  2: /home/openkim/.kim-api/2.3.0+GNU.GNU.GNU.2022-12-07-18-54-28/simulator-models-dir
#  3: /usr/local/lib/kim-api/simulator-models
#=== BEGIN kim init ==========================================
# Using KIM Simulator Model : Sim_LAMMPS_CoreShell_MitchellFincham_1993_NaCl__SM_672022050407_000
# For Simulator             : LAMMPS 28 Mar 2023 - Update 1
# Running on                : LAMMPS 15 Jun 2023
#
units metal
neighbor 2.0 bin   # Angstroms
timestep 1.0e-3    # picoseconds
atom_style full
#=== END kim init ============================================

# ------------------------ READ DATA ---------------------------------

read_data data.kim-bonded.coreshell
Reading data file ...
  orthogonal box = (0 0 0) to (24.09597 24.09597 24.09597)
  reading atom labelmap ...
  reading bond labelmap ...
  reading atoms ...
  432 atoms
  scanning bonds ...
  reading bonds ...
  216 bonds
Finding 1-2 1-3 1-4 neighbors ...
     1 = max # of 1-2 neighbors
     0 = max # of 1-3 neighbors
     0 = max # of 1-4 neighbors
     1 = max # of special neighbors

# It is up to the user to define these groups and all the commands that use them
group cores type 1 2
216 atoms in group cores
group shells type 3 4
216 atoms in group shells

kim interactions
#=== BEGIN kim interactions ==================================
variable kim_update equal 0
variable kim_periodic equal 1
comm_modify vel yes
bond_style harmonic
pair_style   born/coul/long/cs 20.0 20.0
kspace_style ewald 1.0e-6
pair_coeff NaC NaC 0.0 1.000 0.00 0.00 0.00
pair_coeff NaC ClC 0.0 1.000 0.00 0.00 0.00
pair_coeff NaC NaS 0.0 1.000 0.00 0.00 0.00
pair_coeff NaC ClS 0.0 1.000 0.00 0.00 0.00
pair_coeff ClC ClC 0.0 1.000 0.00 0.00 0.00
pair_coeff ClC NaS 0.0 1.000 0.00 0.00 0.00
pair_coeff ClC ClS 0.0 1.000 0.00 0.00 0.00
pair_coeff NaS NaS 487.0 0.23768 0.00 1.05 0.50
pair_coeff NaS ClS 145134.0 0.23768 0.00 6.99 8.70
pair_coeff ClS ClS 405774.0 0.23768 0.00 72.40 145.40
bond_coeff NaC-NaS 63.014 0.0
bond_coeff ClC-ClS 25.724 0.0
set type NaC charge 1.5056
Setting atom values ...
  108 settings made for charge
set type ClC charge 1.5005
Setting atom values ...
  108 settings made for charge
set type NaS charge -0.5056
Setting atom values ...
  108 settings made for charge
set type ClS charge -2.5005
Setting atom values ...
  108 settings made for charge
mass NaC 20.690784
mass ClC 31.90500
mass NaS 2.298976
mass ClS 3.54500
#=== END kim interactions ====================================

# ------------------------ Equilibration Run -------------------------------

reset_timestep 0

thermo 50
thermo_style custom step etotal pe ke temp press              epair evdwl ecoul elong ebond fnorm fmax vol

compute CStemp all temp/cs cores shells
compute thermo_press_lmp all pressure thermo_temp # press for correct kinetic scalar

thermo_modify temp CStemp press thermo_press_lmp

# velocity bias option

velocity all create 1427 134 dist gaussian mom yes rot no bias yes temp CStemp
Ewald initialization ...
  G vector (1/distance) = 0.17525654
  estimated absolute RMS force accuracy = 1.4956298e-05
  estimated relative force accuracy = 1.0386574e-06
  KSpace vectors: actual max1d max3d = 257 5 665
                  kxmax kymax kzmax  = 5 5 5
Generated 0 of 6 mixed pair_coeff terms from geometric mixing rule
velocity all scale 1427 temp CStemp

# thermostating using the core/shell decoupling

fix thermoberendsen all temp/berendsen 1427 1427 0.4
fix nve all nve
fix_modify thermoberendsen temp CStemp

# 2 fmsec timestep

timestep 0.002
run 500

CITE-CITE-CITE-CITE-CITE-CITE-CITE-CITE-CITE-CITE-CITE-CITE-CITE

Your simulation uses code contributions which should be cited:

- OpenKIM Project: doi:10.1007/s11837-011-0102-6

@Article{tadmor:elliott:2011,
 author = {E. B. Tadmor and R. S. Elliott and J. P. Sethna and R. E. Miller and C. A. Becker},
 title = {The potential of atomistic simulations and the {K}nowledgebase of {I}nteratomic {M}odels},
 journal = {{JOM}},
 year =    2011,
 volume =  63,
 number =  17,
 pages =   {17},
 doi =     {10.1007/s11837-011-0102-6}
}

- OpenKIM potential: https://openkim.org/cite/SM_672022050407_000#item-citation

CITE-CITE-CITE-CITE-CITE-CITE-CITE-CITE-CITE-CITE-CITE-CITE-CITE

Ewald initialization ...
  G vector (1/distance) = 0.17525654
  estimated absolute RMS force accuracy = 1.4956298e-05
  estimated relative force accuracy = 1.0386574e-06
  KSpace vectors: actual max1d max3d = 257 5 665
                  kxmax kymax kzmax  = 5 5 5
Generated 0 of 6 mixed pair_coeff terms from geometric mixing rule
Step         TotEng         PotEng         KinEng          Temp          Press          E_pair         E_vdwl         E_coul         E_long         E_bond         Fnorm           Fmax          Volume
0  -635.44099     -675.09865      39.657659      1427          -20613.612     -675.09865      1.6320365      1018.8211     -1695.5518      0              2.7895988e-14  3.594347e-15   13990.5
Loop time of 3.11801 on 1 procs for 500 steps with 432 atoms

unfix thermoberendsen

# ------------------------ Dynamic Run -------------------------------

run 1000
Ewald initialization ...
  G vector (1/distance) = 0.17525654
  estimated absolute RMS force accuracy = 1.4956298e-05
  estimated relative force accuracy = 1.0386574e-06
  KSpace vectors: actual max1d max3d = 257 5 665
                  kxmax kymax kzmax  = 5 5 5
Generated 0 of 6 mixed pair_coeff terms from geometric mixing rule
Step         TotEng         PotEng         KinEng          Temp          Press          E_pair         E_vdwl         E_coul         E_long         E_bond         Fnorm           Fmax          Volume
500  -624.30217     -661.97851      37.676342      1355.7064     -998.56689     -664.60373      42.373155      987.59025     -1694.5671      2.6252201      11.153972      2.8270329      13990.5
Averages over the last 11 of 21 rows, steps 1000 to 1500:
TotEng PotEng KinEng Temp Press E_pair E_vdwl E_coul E_long E_bond Fnorm Fmax Volume
-624.306 -661.198 36.8926 1327.5 -323.715 -663.749 44.0781 986.901 -1694.73 2.55063 11.1578 2.04636 13990.5
Loop time of 6.26707 on 1 procs for 1000 steps with 432 atoms
