LAMMPS (19 Nov 2024 - Development - patch_19Nov2024-836-ge548c656ce)
variable	sname index h2

units 		electron
newton		on
boundary        p p p

atom_style	electron

read_data  	data.h2
Reading data file ...
  orthogonal box = (0 0 0) to (12.895936 12.895936 12.895936)
  reading atoms ...
  128 atoms

pair_style      eff/cut 6.447968 pressure/evirials
pair_coeff 	* *

comm_modify	vel yes

min_style	cg
min_modify	line quadratic
minimize 	0 1.0e-6 1000 2000

CITE-CITE-CITE-CITE-CITE-CITE-CITE-CITE-CITE-CITE-CITE-CITE-CITE

Your simulation uses code contributions which should be cited:
- EFF package: doi:10.1002/jcc.21637
CITE-CITE-CITE-CITE-CITE-CITE-CITE-CITE-CITE-CITE-CITE-CITE-CITE

Generated 0 of 1 mixed pair_coeff terms from geometric mixing rule
Step          Temp          E_pair         E_mol          TotEng         Press
0   0             -25.681592      0             -25.681592      4.1596728e+10
Loop time of 0.00763171 on 4 procs for 43 steps with 128 atoms

Minimization stats:
  Stopping criterion = force tolerance
  Energy initial, next-to-last, final =
  Force two-norm initial, final = 0.90233034 1.9851971e-07
  Force max component initial, final = 0.10428109 2.0171202e-08
  Final line search alpha, max atom move = 1 2.0171202e-08
  Iterations, force evaluations = 43 49

region 		part block INF 2.0 INF 2.0 INF 5.0 units box
group		sub id < 32
31 atoms in group sub

compute		effTemp all temp/eff
compute         effPress all pressure effTemp
compute 	regionT sub temp/region/eff part

compute		peratom all stress/atom NULL
compute		p all reduce sum c_peratom[1] c_peratom[2] c_peratom[3]
variable	press equal -(c_p[1]+c_p[2]+c_p[3])/(3*vol)

thermo		100
thermo_style	custom step etotal pe ke temp press v_press c_regionT
thermo_modify	temp effTemp press effPress

#velocity all create 300.0 4928459 rot yes dist gaussian

fix 		3 all temp/rescale/eff 10 0.0 300.0 0.02 1.0
fix		1 all nve/eff

run		10000
Generated 0 of 1 mixed pair_coeff terms from geometric mixing rule
Step         TotEng         PotEng         KinEng          Temp          Press         v_press       c_regionT
43  -29.402735     -29.402735      0              0              5.8094784e+10  5.8094784e+10  0
Averages over the last 51 of 102 rows, steps 5100 to 10043:
TotEng PotEng KinEng Temp Press v_press c_regionT
-29.2507 -29.3185 0.0678371 226.68 5.66562e+10 5.63625e+10 109.866
Loop time of 1.04131 on 4 procs for 10000 steps with 128 atoms

unfix		3

#compute         1 all property/atom spin eradius
#fix		1 all npt/eff temp 3000.0 3000.0 0.1 iso 1e7 1e7 1.0 drag 0.5
#dump		1 all custom 100 dump.file id type q c_1[1] c_1[2] x y z

#fix		1 all nve/eff

run 		10000
Generated 0 of 1 mixed pair_coeff terms from geometric mixing rule
Step         TotEng         PotEng         KinEng          Temp          Press         v_press       c_regionT
10043  -29.253759     -29.343588      0.089828702    300.16536      6.6201159e+10  6.6189815e+10  370.38327
Averages over the last 51 of 102 rows, steps 15100 to 20043:
TotEng PotEng KinEng Temp Press v_press c_regionT
-29.2538 -29.3341 0.0803464 268.48 6.12241e+10 6.09355e+10 229.05
Loop time of 1.02899 on 4 procs for 10000 steps with 128 atoms
