LAMMPS (12 Jun 2025 - Development - patch_12Jun2025-739-g2644e7f6fa-modified)
# 250 butane system for drude polarizability example (Langevin)

units real
boundary p p p

atom_style full
bond_style harmonic
angle_style harmonic
dihedral_style opls
special_bonds lj/coul 0.0 0.0 0.5

pair_style hybrid/overlay lj/cut/coul/long 8.0 8.0 thole 2.089 8.0
pair_modify mix geometric tail yes
kspace_style pppm 1.0e-4

read_data data.butane
Reading data file ...
  orthogonal box = (-19.099988 -19.099913 -19.099998) to (19.099998 19.099999 19.099987)
  reading atoms ...
  4500 atoms
  scanning bonds ...
  scanning angles ...
  scanning dihedrals ...
  orthogonal box = (-19.099988 -19.099913 -19.099998) to (19.099998 19.099999 19.099987)
  reading bonds ...
  4250 bonds
  reading angles ...
  6000 angles
  reading dihedrals ...
  6750 dihedrals
Finding 1-2 1-3 1-4 neighbors ...
     5 = max # of 1-2 neighbors
     8 = max # of 1-3 neighbors
    12 = max # of 1-4 neighbors
    17 = max # of special neighbors

comm_modify vel yes

group gBUTANE molecule 1:250
4500 atoms in group gBUTANE
group gCORES type 1 2 3
3500 atoms in group gCORES
group gDRUDES type 4 5
1000 atoms in group gDRUDES

pair_coeff    1    1 lj/cut/coul/long 0.065997 3.500000 # C3H C3H
pair_coeff    1    2 lj/cut/coul/long 0.065997 3.500000 # C3H C2H
pair_coeff    1    3 lj/cut/coul/long 0.044496 2.958040 # C3H H
pair_coeff    2    2 lj/cut/coul/long 0.065997 3.500000 # C2H C2H
pair_coeff    2    3 lj/cut/coul/long 0.044496 2.958040 # C2H H
pair_coeff    3    3 lj/cut/coul/long 0.029999 2.500000 # H H
pair_coeff    *  4*5 lj/cut/coul/long 0.000000 0.000000 # No lj for drudes
pair_coeff    1    * thole 1.368000
pair_coeff    2    * thole 1.368000
pair_coeff    4    * thole 1.368000
pair_coeff    5    * thole 1.368000

neighbor 2.0 bin

variable vTEMP   equal 260.0
variable vTEMP_D equal 1.0
variable vPRESS  equal 1.0

velocity gCORES  create 260 12345
velocity gDRUDES create 1 12345

fix fDRUDE all drude C C N D D

fix fSHAKE gCORES shake 0.0001 20 0 b 2 4
Finding SHAKE clusters ...
       0 = # of size 2 clusters
     500 = # of size 3 clusters
     500 = # of size 4 clusters
       0 = # of frozen angles
  find clusters CPU = 0.002 seconds

fix fNVT all tgnvt/drude temp 260 260 100.0 1 20.0

compute cTEMP all temp/drude

thermo_style custom step etotal ke temp pe ebond eangle edihed eimp evdwl ecoul elong press vol c_cTEMP[1] c_cTEMP[2] f_fNVT[1] f_fNVT[2] f_fNVT[3]
thermo 50

timestep 0.5
run 2000
PPPM initialization ...
  G vector (1/distance) = 0.36786669
  grid = 36 36 36
  stencil order = 5
  estimated absolute RMS force accuracy = 0.031353958
  estimated relative force accuracy = 9.4421513e-05
  3d grid and FFT values/proc = 79507 46656
Generated 0 of 10 mixed pair_coeff terms from geometric mixing rule
Rebuild special list taking Drude particles into account
Old max number of 1-2 to 1-4 neighbors: 17
New max number of 1-2 to 1-4 neighbors: 17 (+0)
TGNHC thermostat for Drude model
  DOFs of molecules, atoms and dipoles: 747.0 7250.0 3000.0
Step         TotEng         KinEng          Temp          PotEng         E_bond        E_angle        E_dihed        E_impro         E_vdwl         E_coul         E_long         Press          Volume       c_cTEMP[1]     c_cTEMP[2]     f_fNVT[1]      f_fNVT[2]      f_fNVT[3]
0   6535.5229      2714.74        248.45112      3820.783       3724.3278      140.75328      1.4735401      0             -518.77975      595169.42     -594696.41      4439.79        55742.797      334.61375      18.435655      235.53872      344.96036      18.435655
Averages over the last 21 of 41 rows, steps 1000 to 2000:
TotEng KinEng Temp PotEng E_bond E_angle E_dihed E_impro E_vdwl E_coul E_long Press Volume c_cTEMP[1] c_cTEMP[2] f_fNVT[1] f_fNVT[2] f_fNVT[3]
3271.63 2055.21 188.091 1216.42 225.656 1246.28 220.584 0 -903.325 595295 -594868 -214.313 55742.8 258.178 1.00556 256.763 258.431 1.00556
Loop time of 26.8171 on 1 procs for 2000 steps with 4500 atoms
