LAMMPS (4 Feb 2025 - Development - patch_4Feb2025-106-g5d02e140d4)
# flat membrane demo
variable     r0 equal  0.97
variable     d1 equal  0.97
variable     d2 equal  sqrt(3.0)*0.97
variable     d3 equal  3.0*0.97
variable     ro equal  2./0.97/1.68008928334181/2.91

variable     T  equal  0.23
variable     LD equal  1.0

units        lj
atom_style   ellipsoid

boundary     p p p

lattice      custom 0.421728460751825 a1 0.97  0.0 0.0 a2 0.0 1.68008928334181  0.0              a3 0.0 0.0 2.91  basis 0.0 0.0 0.0 basis 0.5  0.5  0.0
Lattice spacing in x,y,z = 0.97 1.6800893 2.91

region       box block   0 40  0 24  -20  20
create_box   1 box
Created orthogonal box = (0 0 -58.2) to (38.8 40.322143 58.2)
region       membrane block  0 40  0 24 -0.5 0.5
create_atoms 1 region membrane
Created 1920 atoms

group        membrane  region membrane
1920 atoms in group membrane

set type 1 mass  1.0
Setting atom values ...
  1920 settings made for mass

set type 1 shape  1 0.99 0.99
Setting atom values ...
  1920 settings made for shape

set          group all quat 0 -1 0  90
Setting atom values ...
  1920 settings made for quat

#compute      memb  all temp/com
#compute      rot all temp/asphere bias memb
velocity     all create 0.23 87287 loop geom

pair_style   ylz  2.6
pair_coeff   *  *   1.0  1.0  4  3  0.0  2.6
neighbor     1.0 bin

thermo_style custom step temp press pxx pyy
thermo       200

timestep     0.01

#dump         1 all atom 10 dump_onlymembrane.lammpstrj

fix          1 all langevin 0.23 0.23  1  48279

fix          2 all nve/asphere
run          3000

CITE-CITE-CITE-CITE-CITE-CITE-CITE-CITE-CITE-CITE-CITE-CITE-CITE

Your simulation uses code contributions which should be cited:

- pair ylz command:

@Article{Yuan10,
 author =  {H. Yuan, C. Huang, J. Li, G. Lykotrafitis, and S. Zhang},
 title =   {One-particle-thick, solvent-free, coarse-grained model for biological and biomimetic fluid membranes},
 journal = {Phys. Rev. E},
 year =    2010,
 volume =  82,
 pages =   {011905}
}

CITE-CITE-CITE-CITE-CITE-CITE-CITE-CITE-CITE-CITE-CITE-CITE-CITE

Generated 0 of 0 mixed pair_coeff terms from geometric mixing rule
Step          Temp          Press           Pxx            Pyy
0   0.23          -0.0073508785  -0.012283389   -0.012234574
Averages over the last 8 of 16 rows, steps 1600 to 3000:
Temp Press Pxx Pyy
0.226436 0.000105492 0.000264397 8.32605e-05
Loop time of 7.17991 on 1 procs for 3000 steps with 1920 atoms
