LAMMPS (12 Jun 2025 - Development - patch_12Jun2025-584-g3e8807bee0-modified)
units real
boundary p p p

atom_style full
bond_style harmonic
angle_style harmonic
special_bonds lj/coul 0.0 0.0 0.5

pair_style lj/cut/coul/long 12.0 12.0
kspace_style pppm 1.0e-3

comm_modify vel yes
read_data data.swm4-ndp
Reading data file ...
  orthogonal box = (-12 -12 -12) to (12 12 12)
  reading atoms ...
  2500 atoms
  scanning bonds ...
  scanning angles ...
  orthogonal box = (-12 -12 -12) to (12 12 12)
  reading bonds ...
  2000 bonds
  reading angles ...
  500 angles
Finding 1-2 1-3 1-4 neighbors ...
     4 = max # of 1-2 neighbors
     3 = max # of 1-3 neighbors
     3 = max # of 1-4 neighbors
     4 = max # of special neighbors

pair_coeff    1    1      0.210939     3.183950  # ODw ODw
pair_coeff    *   2*      0.000000     0.0

group ATOMS type 1:3
2000 atoms in group ATOMS
group CORES type 1
500 atoms in group CORES
group DRUDES type 4
500 atoms in group DRUDES

variable TK equal 300.0
variable TDK equal 1.0
variable PBAR equal 1.0

neighbor 2.0 bin

timestep 1.0

fix DRUDE all drude C N N D

velocity ATOMS create 300 12345
velocity DRUDES create 1 12345

delete_bonds ATOMS multi
System init for delete_bonds ...
PPPM initialization ...
  G vector (1/distance) = 0.21745695
  grid = 10 10 10
  stencil order = 5
  estimated absolute RMS force accuracy = 0.19728846
  estimated relative force accuracy = 0.00059412835
  3d grid and FFT values/proc = 3375 1000
Generated 0 of 6 mixed pair_coeff terms from geometric mixing rule
Rebuild special list taking Drude particles into account
Old max number of 1-2 to 1-4 neighbors: 4
New max number of 1-2 to 1-4 neighbors: 4 (+0)
Deleting bonds ...
  2000 total bonds, 500 turned on, 1500 turned off
  500 total angles, 0 turned on, 500 turned off
  0 total dihedrals, 0 turned on, 0 turned off
  0 total impropers, 0 turned on, 0 turned off

fix TEMP all langevin/drude 300 100. 1256 1 20. 13977 zero yes
fix NPH ATOMS rigid/nph/small molecule iso 1 1 500.
Fix rigid/nph/small setup ...
  500 rigid bodies with 2000 atoms
  0.83209864 = max distance from body owner to body atom
fix NVE DRUDES nve

compute TEMP all temp/drude

thermo_style custom step etotal ke pe ebond eangle evdwl ecoul elong press vol temp c_TEMP[1] c_TEMP[2]
thermo 20

run 2000
PPPM initialization ...
  G vector (1/distance) = 0.21745695
  grid = 10 10 10
  stencil order = 5
  estimated absolute RMS force accuracy = 0.19728846
  estimated relative force accuracy = 0.00059412835
  3d grid and FFT values/proc = 3375 1000
Generated 0 of 6 mixed pair_coeff terms from geometric mixing rule
Step         TotEng         KinEng         PotEng         E_bond        E_angle         E_vdwl         E_coul         E_long         Press          Volume          Temp        c_TEMP[1]      c_TEMP[2]
0   4568.0413      903.41148      3664.6298      623.46454      0              2890.2449      157955.66     -157804.74      244591.07      13824          202.18534      295.64644      14.858785
Averages over the last 51 of 101 rows, steps 1000 to 2000:
TotEng KinEng PotEng E_bond E_angle E_vdwl E_coul E_long Press Volume Temp c_TEMP[1] c_TEMP[2]
-3815.39 907.385 -4722.77 1488.62 0 1046.86 150688 -157946 154.818 15496.2 203.075 303.424 1.96965
Loop time of 38.9584 on 1 procs for 2000 steps with 2500 atoms
