LAMMPS (12 Jun 2025 - Development - patch_12Jun2025-739-g2644e7f6fa-modified)
units real
boundary p p p

atom_style full
bond_style harmonic
angle_style harmonic
dihedral_style opls
special_bonds lj/coul 0.0 0.0 0.5

pair_style hybrid/overlay lj/cut/coul/long 8.0 8.0 thole 2.600 8.0
kspace_style pppm 1.0e-4

comm_modify vel yes
read_data data.ethanol
Reading data file ...
  orthogonal box = (-14.013845 -14.027809 -14.018882) to (14.01693 14.01773 14.08573)
  reading atoms ...
  3000 atoms
  scanning bonds ...
  scanning angles ...
  scanning dihedrals ...
  orthogonal box = (-14.013845 -14.027809 -14.018882) to (14.01693 14.01773 14.08573)
  reading bonds ...
  2750 bonds
  reading angles ...
  3250 angles
  reading dihedrals ...
  3000 dihedrals
Finding 1-2 1-3 1-4 neighbors ...
     5 = max # of 1-2 neighbors
     6 = max # of 1-3 neighbors
    10 = max # of 1-4 neighbors
    11 = max # of special neighbors

pair_coeff    1    1 lj/cut/coul/long 0.065997 3.500000 # C3H C3H
pair_coeff    1    2 lj/cut/coul/long 0.065997 3.500000 # C3H CTO
pair_coeff    1    3 lj/cut/coul/long 0.044496 2.958040 # C3H H
pair_coeff    1    4 lj/cut/coul/long 0.105921 3.304542 # C3H OH
pair_coeff    1    5 lj/cut/coul/long 0.000000 0.000000 # C3H HO
pair_coeff    2    2 lj/cut/coul/long 0.065997 3.500000 # CTO CTO
pair_coeff    2    3 lj/cut/coul/long 0.044496 2.958040 # CTO H
pair_coeff    2    4 lj/cut/coul/long 0.105921 3.304542 # CTO OH
pair_coeff    2    5 lj/cut/coul/long 0.000000 0.000000 # CTO HO
pair_coeff    3    3 lj/cut/coul/long 0.029999 2.500000 # H H
pair_coeff    3    4 lj/cut/coul/long 0.071413 2.792848 # H OH
pair_coeff    3    5 lj/cut/coul/long 0.000000 0.000000 # H HO
pair_coeff    4    4 lj/cut/coul/long 0.169996 3.120000 # OH OH
pair_coeff    4    5 lj/cut/coul/long 0.000000 0.000000 # OH HO
pair_coeff    5    5 lj/cut/coul/long 0.000000 0.000000 # HO HO
pair_coeff    *  6*8 lj/cut/coul/long 0.000000 0.000000 # No lj for drudes
pair_coeff    1    1 thole 2.051000
pair_coeff    1    2 thole 1.580265
pair_coeff    1    4 thole 1.416087
pair_coeff    1    6 thole 2.051000
pair_coeff    1    7 thole 1.580265
pair_coeff    1    8 thole 1.416087
pair_coeff    2    2 thole 1.217570
pair_coeff    2    4 thole 1.091074
pair_coeff    2    6 thole 1.580265
pair_coeff    2    7 thole 1.217570
pair_coeff    2    8 thole 1.091074
pair_coeff    4    4 thole 0.977720
pair_coeff    4    6 thole 1.416087
pair_coeff    4    7 thole 1.091074
pair_coeff    4    8 thole 0.977720
pair_coeff    6    6 thole 2.051000
pair_coeff    6    7 thole 1.580265
pair_coeff    6    8 thole 1.416087
pair_coeff    7    7 thole 1.217570
pair_coeff    7    8 thole 1.091074
pair_coeff    8    8 thole 0.977720

group gETHANOL molecule 1:250
3000 atoms in group gETHANOL
group gATOMS type 1 2 3 4 5
2250 atoms in group gATOMS
group gDRUDES type 6 7 8
750 atoms in group gDRUDES

neighbor 2.0 bin

variable vTEMP   equal 300.0
variable vTEMP_D equal 1.0
variable vPRESS  equal 1.0

velocity gATOMS  create 300 12345
velocity gDRUDES create 1 12345

fix fDRUDE all drude C C N C N D D D

fix fSHAKE gATOMS shake 0.0001 20 0 b 2 3 5
Finding SHAKE clusters ...
     250 = # of size 2 clusters
     250 = # of size 3 clusters
     250 = # of size 4 clusters
       0 = # of frozen angles
  find clusters CPU = 0.001 seconds

fix fNPT all tgnpt/drude temp 300 300 100.0 1 20.0 iso 1 1 1000

compute cTEMP all temp/drude

thermo_style custom step cpu etotal ke temp pe ebond eangle edihed eimp evdwl ecoul elong press vol c_cTEMP[1] c_cTEMP[2] f_fNPT[1] f_fNPT[2] f_fNPT[3]
thermo 20

timestep 0.5
run 2000
PPPM initialization ...
  G vector (1/distance) = 0.37973843
  grid = 30 30 30
  stencil order = 5
  estimated absolute RMS force accuracy = 0.028997858
  estimated relative force accuracy = 8.7326188e-05
  3d grid and FFT values/proc = 17908 6750
Generated 0 of 28 mixed pair_coeff terms from geometric mixing rule
Rebuild special list taking Drude particles into account
Old max number of 1-2 to 1-4 neighbors: 11
New max number of 1-2 to 1-4 neighbors: 11 (+0)
TGNHC thermostat for Drude model
  DOFs of molecules, atoms and dipoles: 747.0 4500.0 2250.0
Step          CPU           TotEng         KinEng          Temp          PotEng         E_bond        E_angle        E_dihed        E_impro         E_vdwl         E_coul         E_long         Press          Volume       c_cTEMP[1]     c_cTEMP[2]     f_fNPT[1]      f_fNPT[2]      f_fNPT[3]
0   0              13868.827      2013.3852      270.28772      11855.442      3145.896       51.880809      0.00019113234  0              8481.5109      514734.14     -514557.98      170210.19      22094.109      381.62759      10.134301      291.07893      396.91308      10.134301
Averages over the last 51 of 101 rows, steps 1000 to 2000:
TotEng KinEng Temp PotEng E_bond E_angle E_dihed E_impro E_vdwl E_coul E_long Press Volume c_cTEMP[1] c_cTEMP[2] f_fNPT[1] f_fNPT[2] f_fNPT[3]
614.541 1554.05 208.624 -939.51 649.067 724.111 154.498 0 -549.574 513098 -515016 -189.752 25778.4 297.489 0.994758 302.568 296.844 0.994783
Loop time of 7.35368 on 4 procs for 2000 steps with 3000 atoms
