LAMMPS (2 Apr 2025 - Development - patch_4Feb2025-645-gba166d42e1-modified)
# create pure copper system
units metal
lattice fcc 3.75
Lattice spacing in x,y,z = 3.75 3.75 3.75
region box block 0 6 0 6 0 6
create_box 2 box
Created orthogonal box = (0 0 0) to (22.5 22.5 22.5)

timestep 0.002
create_atoms 1 box
Created 864 atoms

pair_style eam/alloy
pair_coeff * * AlCu.eam.alloy Cu Al

# Initialize to a high temperature, then cool in npt ensemble
velocity all create 1000.0 6567345
fix 1 all npt temp 300.0 300.0 $(500*dt) iso 0.0 0.0 $(100*dt)
fix 1 all npt temp 300.0 300.0 1 iso 0.0 0.0 $(100*dt)
fix 1 all npt temp 300.0 300.0 1 iso 0.0 0.0 0.2000000000000000111

variable toteng equal "etotal"
fix 2 all ave/moments 5 200 100 v_toteng mean stddev variance skew kurtosis

thermo_style custom step temp press etotal f_2[*]

thermo 100
run 10000
Step          Temp          Press          TotEng         f_2[1]         f_2[2]         f_2[3]         f_2[4]         f_2[5]
0   1000          -107410.22     -2884.9159      0              0              0              0              0
Averages over the last 51 of 101 rows, steps 5000 to 10000:
Temp Press TotEng f_2[1] f_2[2] f_2[3] f_2[4] f_2[5]
300.202 -28.2828 -2977.58 -2977.15 0.847821 0.835031 -0.00765157 -0.820952
Loop time of 15.3108 on 4 procs for 10000 steps with 864 atoms
