LAMMPS (2 Apr 2025 - Development - patch_4Feb2025-645-gba166d42e1-modified)
# create pure copper system
units metal
lattice fcc 3.75
Lattice spacing in x,y,z = 3.75 3.75 3.75
region box block 0 6 0 6 0 6
create_box 2 box
Created orthogonal box = (0 0 0) to (22.5 22.5 22.5)

timestep 0.002
create_atoms 1 box
Created 864 atoms

pair_style eam/alloy
pair_coeff * * AlCu.eam.alloy Cu Al

# Initialize to a high temperature, then cool in npt ensemble
velocity all create 1000.0 6567345
fix 1 all npt temp 300.0 300.0 $(500*dt) iso 0.0 0.0 $(100*dt)
fix 1 all npt temp 300.0 300.0 1 iso 0.0 0.0 $(100*dt)
fix 1 all npt temp 300.0 300.0 1 iso 0.0 0.0 0.2000000000000000111

variable toteng equal "etotal"
fix 2 all ave/moments 10 500 200 v_toteng mean stddev history 5

variable conv equal "(f_2[2] < 2) && (f_2[2][1] < f_2[2][5])"
fix 3 all halt 1000 v_conv == 1

thermo_style custom step temp press etotal f_2[*][1] f_2[*][5] v_conv

thermo 100
run 10000
Step          Temp          Press          TotEng       f_2[1][1]      f_2[2][1]      f_2[1][5]      f_2[2][5]        v_conv
0   1000          -107410.22     -2884.9159      0              0              0              0              0
Averages over the last 45 of 90 rows, steps 4500 to 8900:
Temp Press TotEng f_2[1][1] f_2[2][1] f_2[1][5] f_2[2][5] v_conv
303.195 -18.1556 -2976.89 -2974.69 6.0446 -2972.73 8.68589 0.133333
Fix halt condition for fix-id 3 met on step 9000 with value 1 (src/fix_halt.cpp:310)
Loop time of 14.7347 on 4 procs for 9000 steps with 864 atoms
