LAMMPS (12 Jun 2025 - Development - patch_12Jun2025-356-gfb9a39f1cf-modified)
# Testsystem for core-shell model compared to Mitchel and Finchham
# Hendrik Heenen, June 2014

# ------------------------ INITIALIZATION ----------------------------

units 		metal
dimension	3
boundary	p	p	p
atom_style	full

# ----------------------- ATOM DEFINITION ----------------------------

fix csinfo all property/atom i_CSID
read_data data.coreshell fix csinfo NULL CS-Info
Reading data file ...
  orthogonal box = (0 0 0) to (24.09597 24.09597 24.09597)
  reading atoms ...
  432 atoms
  scanning bonds ...
  orthogonal box = (0 0 0) to (24.09597 24.09597 24.09597)
  reading bonds ...
  216 bonds
Finding 1-2 1-3 1-4 neighbors ...
     1 = max # of 1-2 neighbors
     0 = max # of 1-3 neighbors
     0 = max # of 1-4 neighbors
     1 = max # of special neighbors

group cores type 1 2
216 atoms in group cores
group shells type 3 4
216 atoms in group shells

neighbor 2.0 bin
comm_modify vel yes

# ------------------------ FORCE FIELDS ------------------------------

pair_style   born/coul/dsf/cs 0.1 20.0 20.0    # A, rho, sigma=0, C, D
pair_coeff   * *      0.0 1.000   0.00  0.00   0.00
pair_coeff   3 3    487.0 0.23768 0.00  1.05   0.50 #Na-Na
pair_coeff   3 4 145134.0 0.23768 0.00  6.99   8.70 #Na-Cl
pair_coeff   4 4 405774.0 0.23768 0.00 72.40 145.40 #Cl-Cl

bond_style harmonic
bond_coeff 1 63.014 0.0
bond_coeff 2 25.724 0.0

# ------------------------ Equilibration Run -------------------------------

reset_timestep 0

thermo 50
thermo_style custom step etotal pe ke temp press              epair evdwl ecoul elong ebond fnorm fmax vol

compute CSequ all temp/cs cores shells

# output via chunk method

#compute prop all property/atom i_CSID
#compute cs_chunk all chunk/atom c_prop
#compute cstherm all temp/chunk cs_chunk temp internal com yes cdof 3.0
#fix ave_chunk all ave/time 100 1 100 c_cstherm file chunk.dump mode vector

thermo_modify temp CSequ

# velocity bias option

velocity all create 1427 134 dist gaussian mom yes rot no bias yes temp CSequ
Generated 0 of 6 mixed pair_coeff terms from geometric mixing rule
velocity all scale 1427 temp CSequ

fix thermoberendsen all temp/berendsen 1427 1427 0.4
fix nve all nve
fix_modify thermoberendsen temp CSequ

# 2 fmsec timestep

timestep 0.002
run 500
Generated 0 of 6 mixed pair_coeff terms from geometric mixing rule
Step         TotEng         PotEng         KinEng          Temp          Press          E_pair         E_vdwl         E_coul         E_long         E_bond         Fnorm           Fmax          Volume
0  -635.80596     -675.46362      39.657659      1427          -21302.622     -675.46362      1.6320365     -677.09565      0              0              1.5814015e-14  3.2317898e-15  13990.5
Loop time of 1.17261 on 4 procs for 500 steps with 432 atoms

unfix thermoberendsen

# ------------------------ Dynamic Run -------------------------------

run 1000
Generated 0 of 6 mixed pair_coeff terms from geometric mixing rule
Step         TotEng         PotEng         KinEng          Temp          Press          E_pair         E_vdwl         E_coul         E_long         E_bond         Fnorm           Fmax          Volume
500  -623.48655     -659.20474      35.71819       1285.2463     -921.91235     -662.28749      43.0844       -705.37189      0              3.0827503      14.150348      2.0136024      13990.5
Averages over the last 11 of 21 rows, steps 1000 to 1500:
TotEng PotEng KinEng Temp Press E_pair E_vdwl E_coul E_long E_bond Fnorm Fmax Volume
-623.477 -660.527 37.0507 1333.19 -224.074 -663.519 44.1767 -707.696 0 2.99201 14.2652 2.15695 13990.5
Loop time of 2.47391 on 4 procs for 1000 steps with 432 atoms
