LAMMPS (12 Jun 2025 - Development - patch_12Jun2025-739-g2644e7f6fa-modified)
# Testsystem for core-shell model compared to Mitchell and Fincham
# Hendrik Heenen, June 2014

# ------------------------ INITIALIZATION ----------------------------

units 		metal
dimension	3
boundary	p	p	p
atom_style	full

# ----------------------- ATOM DEFINITION ----------------------------

fix csinfo all property/atom i_CSID
read_data data.coreshell fix csinfo NULL CS-Info
Reading data file ...
  orthogonal box = (0 0 0) to (24.09597 24.09597 24.09597)
  reading atoms ...
  432 atoms
  scanning bonds ...
  orthogonal box = (0 0 0) to (24.09597 24.09597 24.09597)
  reading bonds ...
  216 bonds
Finding 1-2 1-3 1-4 neighbors ...
     1 = max # of 1-2 neighbors
     0 = max # of 1-3 neighbors
     0 = max # of 1-4 neighbors
     1 = max # of special neighbors

group cores type 1 2
216 atoms in group cores
group shells type 3 4
216 atoms in group shells

neighbor 2.0 bin
comm_modify vel yes

# ------------------------ FORCE FIELDS ------------------------------

kspace_style ewald 1.0e-6
pair_style   born/coul/long/cs 20.0 20.0    # A, rho, sigma=0, C, D
pair_coeff   * *      0.0 1.000   0.00  0.00   0.00
pair_coeff   3 3    487.0 0.23768 0.00  1.05   0.50 #Na-Na
pair_coeff   3 4 145134.0 0.23768 0.00  6.99   8.70 #Na-Cl
pair_coeff   4 4 405774.0 0.23768 0.00 72.40 145.40 #Cl-Cl

bond_style harmonic
bond_coeff 1 63.014 0.0
bond_coeff 2 25.724 0.0

# ------------------------ Equilibration Run -------------------------------

reset_timestep 0

thermo 50
thermo_style custom step etotal pe ke temp press              epair evdwl ecoul elong ebond fnorm fmax vol

compute CStemp all temp/cs cores shells
compute thermo_press_lmp all pressure thermo_temp # press for correct kinetic scalar

# output via chunk method

#compute prop all property/atom i_CSID
#compute cs_chunk all chunk/atom c_prop
#compute cstherm all temp/chunk cs_chunk temp internal com yes cdof 3.0
#fix ave_chunk all ave/time 100 1 100 c_cstherm file chunk.dump mode vector

thermo_modify temp CStemp press thermo_press_lmp

# 2 fmsec timestep

timestep 0.002

# velocity bias option

velocity all create 1427 134 dist gaussian mom yes rot no bias yes temp CStemp
Ewald initialization ...
  G vector (1/distance) = 0.17525654
  estimated absolute RMS force accuracy = 1.4956298e-05
  estimated relative force accuracy = 1.0386574e-06
  KSpace vectors: actual max1d max3d = 257 5 665
                  kxmax kymax kzmax  = 5 5 5
Generated 0 of 6 mixed pair_coeff terms from geometric mixing rule
velocity all scale 1427 temp CStemp

# thermostating using the core/shell decoupling

fix thermoberendsen all temp/berendsen 1427 1427 0.4
fix nve all nve
fix_modify thermoberendsen temp CStemp

run 500
Ewald initialization ...
  G vector (1/distance) = 0.17525654
  estimated absolute RMS force accuracy = 1.4956298e-05
  estimated relative force accuracy = 1.0386574e-06
  KSpace vectors: actual max1d max3d = 257 5 665
                  kxmax kymax kzmax  = 5 5 5
Generated 0 of 6 mixed pair_coeff terms from geometric mixing rule
Step         TotEng         PotEng         KinEng          Temp          Press          E_pair         E_vdwl         E_coul         E_long         E_bond         Fnorm           Fmax          Volume
0  -635.44091     -675.09857      39.657659      1427          -20613.604     -675.09857      1.6320365      1018.8212     -1695.5518      0              2.8962997e-14  3.5962308e-15  13990.5
Loop time of 1.90061 on 1 procs for 500 steps with 432 atoms

unfix thermoberendsen
unfix nve

fix npt_equ all npt temp 1427 1427 0.04 iso 0 0 0.4
fix_modify npt_equ temp CStemp press thermo_press_lmp # pressure for correct kinetic scalar

run 500
Ewald initialization ...
  G vector (1/distance) = 0.17525654
  estimated absolute RMS force accuracy = 1.4956298e-05
  estimated relative force accuracy = 1.0386574e-06
  KSpace vectors: actual max1d max3d = 257 5 665
                  kxmax kymax kzmax  = 5 5 5
Generated 0 of 6 mixed pair_coeff terms from geometric mixing rule
Step         TotEng         PotEng         KinEng          Temp          Press          E_pair         E_vdwl         E_coul         E_long         E_bond         Fnorm           Fmax          Volume
500  -624.30214     -661.97847      37.676334      1355.7061     -998.38232     -664.60372      42.373513      987.58993     -1694.5672      2.6252488      11.15392       2.827216       13990.5
Loop time of 1.83916 on 1 procs for 500 steps with 432 atoms

unfix npt_equ

# ------------------------ Dynamic Run -------------------------------

fix npt_dyn all npt temp 1427 1427 0.04 iso 0 0 0.4
fix_modify npt_dyn temp CStemp press thermo_press_lmp # pressure for correct kinetic scalar
run 1000
Ewald initialization ...
  G vector (1/distance) = 0.17512718
  estimated absolute RMS force accuracy = 1.5185076e-05
  estimated relative force accuracy = 1.0545452e-06
  KSpace vectors: actual max1d max3d = 257 5 665
                  kxmax kymax kzmax  = 5 5 5
Generated 0 of 6 mixed pair_coeff terms from geometric mixing rule
Step         TotEng         PotEng         KinEng          Temp          Press          E_pair         E_vdwl         E_coul         E_long         E_bond         Fnorm           Fmax          Volume
1000  -612.41721     -655.24959      42.83238       1541.2359     -118.78183     -658.21419      43.040306      992.00287     -1693.2574      2.9645984      11.329452      2.607919       14507.077
Averages over the last 11 of 21 rows, steps 1500 to 2000:
TotEng PotEng KinEng Temp Press E_pair E_vdwl E_coul E_long E_bond Fnorm Fmax Volume
-613.838 -654.492 40.6543 1462.86 -293.246 -657.28 43.195 992.748 -1693.22 2.78768 11.1381 2.04069 15563.2
Loop time of 3.57087 on 1 procs for 1000 steps with 432 atoms
