LAMMPS (2 Apr 2025 - Development - patch_2Apr2025-583-g5868aa095d-modified)
# two monomer nylon example
# reaction produces a condensed water molecule

units real

boundary p p p

atom_style full

kspace_style pppm 1.0e-4

pair_style lj/class2/coul/long 8.5

angle_style class2

bond_style class2

dihedral_style class2

improper_style class2

special_bonds lj/coul 0 0 1
pair_modify tail yes mix sixthpower

read_data tiny_nylon.data   extra/bond/per/atom 5    extra/angle/per/atom 15   extra/dihedral/per/atom 15   extra/improper/per/atom 25   extra/special/per/atom 25
Reading data file ...
  orthogonal box = (-25 -25 -25) to (25 25 25)
  reading atom labelmap ...
  reading bond labelmap ...
  reading angle labelmap ...
  reading dihedral labelmap ...
  reading improper labelmap ...
  reading atoms ...
  44 atoms
  reading velocities ...
  44 velocities
  scanning bonds ...
  scanning angles ...
  scanning dihedrals ...
  scanning impropers ...
  orthogonal box = (-25 -25 -25) to (25 25 25)
  reading bonds ...
  42 bonds
  reading angles ...
  74 angles
  reading dihedrals ...
  100 dihedrals
  reading impropers ...
  16 impropers
Finding 1-2 1-3 1-4 neighbors ...
     4 = max # of 1-2 neighbors
     6 = max # of 1-3 neighbors
    35 = max # of special neighbors

velocity all create 300.0 4928459 dist gaussian

molecule mol1 rxn1_stp1_unreacted.json
Read molecule template mol1:
(no title)
  1 molecules
  0 fragments
  18 atoms with max type 0
  16 bonds with max type 8
  25 angles with max type 25
  23 dihedrals with max type 33
  2 impropers with max type 3
molecule mol2 rxn1_stp1_reacted.json
Read molecule template mol2:
(no title)
  1 molecules
  0 fragments
  18 atoms with max type 0
  17 bonds with max type 11
  31 angles with max type 24
  39 dihedrals with max type 30
  0 impropers with max type 0
molecule mol3 rxn1_stp2_unreacted.json
Read molecule template mol3:
(no title)
  1 molecules
  0 fragments
  15 atoms with max type 0
  14 bonds with max type 11
  25 angles with max type 24
  30 dihedrals with max type 30
  0 impropers with max type 0
molecule mol4 rxn1_stp2_reacted.json
Read molecule template mol4:
(no title)
  1 molecules
  0 fragments
  15 atoms with max type 0
  13 bonds with max type 13
  19 angles with max type 26
  16 dihedrals with max type 29
  2 impropers with max type 5

thermo 50

# dump 1 all xyz 1 test_vis.xyz
# dump_modify 1 types labels

fix myrxns all bond/react stabilization yes statted_grp .03   react rxn1 all 1 0.0 2.9 mol1 mol2 rxn1_stp1_map   react rxn2 all 1 0.0 5.0 mol3 mol4 rxn1_stp2_map rescale_charges yes
dynamic group bond_react_MASTER_group defined
dynamic group statted_grp_REACT defined

fix 1 statted_grp_REACT nvt temp 300 300 100

# optionally, you can customize behavior of reacting atoms,
# by using the internally-created 'bond_react_MASTER_group', like so:
fix 4 bond_react_MASTER_group temp/rescale 1 300 300 10 1

thermo_style custom step temp press density f_myrxns[*]

# restart 100 restart1 restart2

run 10000

CITE-CITE-CITE-CITE-CITE-CITE-CITE-CITE-CITE-CITE-CITE-CITE-CITE

Your simulation uses code contributions which should be cited:

- Type Label Framework: https://doi.org/10.1021/acs.jpcb.3c08419

@Article{Gissinger24,
 author = {Jacob R. Gissinger, Ilia Nikiforov, Yaser Afshar, Brendon Waters, Moon-ki Choi, Daniel S. Karls, Alexander Stukowski, Wonpil Im, Hendrik Heinz, Axel Kohlmeyer, and Ellad B. Tadmor},
 title = {Type Label Framework for Bonded Force Fields in LAMMPS},
 journal = {J. Phys. Chem. B},
 year =    2024,
 volume =  128,
 number =  13,
 pages =   {3282--3297}
}

- fix bond/react: reacter.org doi:10.1016/j.polymer.2017.09.038, doi:10.1021/acs.macromol.0c02012, doi:10.1016/j.cpc.2024.109287

@Article{Gissinger17,
 author = {J. R. Gissinger and B. D. Jensen and K. E. Wise},
 title = {Modeling Chemical Reactions in Classical Molecular Dynamics Simulations},
 journal = {Polymer},
 year =    2017,
 volume =  128,
 pages =   {211--217}
}

@Article{Gissinger20,
 author = {J. R. Gissinger, B. D. Jensen, K. E. Wise},
 title = {{REACTER}: A Heuristic Method for Reactive Molecular Dynamics},
 journal = {Macromolecules},
 year =    2020,
 volume =  53,
 number =  22,
 pages =   {9953--9961}
}

@Article{Gissinger24,
 author = {J. R. Gissinger, B. D. Jensen, K. E. Wise},
 title = {Molecular Modeling of Reactive Systems with REACTER},
 journal = {Computer Physics Communications},
 year =    2024,
 volume =  304,
 number =  109287
}

CITE-CITE-CITE-CITE-CITE-CITE-CITE-CITE-CITE-CITE-CITE-CITE-CITE

PPPM initialization ...
  G vector (1/distance) = 0.23408048
  grid = 15 15 15
  stencil order = 5
  estimated absolute RMS force accuracy = 0.018627396
  estimated relative force accuracy = 5.6095851e-05
  3d grid and FFT values/proc = 8000 3375
Generated 55 of 55 mixed pair_coeff terms from sixthpower/sixthpower mixing rule
Step          Temp          Press         Density      f_myrxns[1]    f_myrxns[2]
0   300            357.25588      0.0034851739   0              0
Averages over the last 101 of 201 rows, steps 5000 to 10000:
Temp Press Density f_myrxns[1] f_myrxns[2]
303.305 1.91853 0.00348517 1 1
Loop time of 1.29509 on 1 procs for 10000 steps with 44 atoms

# write_restart restart_longrun
# write_data restart_longrun.data
