LAMMPS (2 Apr 2025 - Development - d4867ab55e-modified)
# GJ thermostat

units   	metal
atom_style      full

boundary 	p p p
read_data argon.lmp
Reading data file ...
  orthogonal box = (0 0 0) to (32.146 32.146 32.146)
  reading atoms ...
  864 atoms
Finding 1-2 1-3 1-4 neighbors ...
     0 = max # of 1-2 neighbors
     0 = max # of 1-3 neighbors
     0 = max # of 1-4 neighbors
     1 = max # of special neighbors
include ff-argon.lmp
#############################
#Atoms types - mass - charge#
#############################
#@ 1 atom types #!THIS LINE IS NECESSARY DON'T SPEND HOURS FINDING THAT OUT!#

variable Ar equal 1

#############
#Atom Masses#
#############

mass 1      39.903

###########################
#Pair Potentials - Tersoff#
###########################

pair_style      lj/cubic
pair_coeff      * * 0.0102701 3.42

velocity all create 10 2357 mom yes dist gaussian
neighbor 1 bin

timestep 0.1

compute myKE all ke
compute myPE all pe

fix lang all gjf 10 10 1 26488 vel vfull method 1

run 5000

CITE-CITE-CITE-CITE-CITE-CITE-CITE-CITE-CITE-CITE-CITE-CITE-CITE

Your simulation uses code contributions which should be cited:

- GJ methods: doi:10.1080/00268976.2019.1662506

@Article{gronbech-jensen_complete_2020,
title = {Complete set of stochastic Verlet-type thermostats for correct Langevin simulations},
volume = {118},
number = {8},
url = {https://www.tandfonline.com/doi/full/10.1080/00268976.2019.1662506},
doi = {10.1080/00268976.2019.1662506},
journal = {Molecular Physics},
author = {Grønbech-Jensen, Niels},
year = {2020}
}

- GJ-I vfull method: doi:10.1080/00268976.2012.760055

@Article{gronbech-jensen_simple_2013,
title = {A simple and effective Verlet-type algorithm for simulating Langevin dynamics},
volume = {111},
url = {http://www.tandfonline.com/doi/abs/10.1080/00268976.2012.760055},
doi = {10.1080/00268976.2012.760055},
pages = {983-991},
number = {8},
journal = {Molecular Physics},
author = {Grønbech-Jensen, Niels and Farago, Oded},
year = {2013}
}

CITE-CITE-CITE-CITE-CITE-CITE-CITE-CITE-CITE-CITE-CITE-CITE-CITE

Generated 0 of 0 mixed pair_coeff terms from geometric mixing rule
Step          Temp          E_pair         E_mol          TotEng         Press
0   10            -56.207652      0             -55.092137      33.341103
Loop time of 2.0998 on 4 procs for 5000 steps with 864 atoms

fix energies all ave/time 1 20000 20000 c_myKE c_myPE #file ave.out

thermo 2000
run 35000
Generated 0 of 0 mixed pair_coeff terms from geometric mixing rule
Step          Temp          E_pair         E_mol          TotEng         Press
5000   7.946377      -55.076514      0             -54.190084      337.31999
Averages over the last 10 of 19 rows, steps 22000 to 40000:
Temp E_pair E_mol TotEng Press
8.36291 -55.1061 0 -54.1732 330.715
Loop time of 17.6726 on 4 procs for 35000 steps with 864 atoms
