LAMMPS (2 Apr 2025 - Development - d4867ab55e-modified)
# GJ thermostat

units   	metal
atom_style      full

boundary 	p p p
read_data argon.lmp
Reading data file ...
  orthogonal box = (0 0 0) to (32.146 32.146 32.146)
  reading atoms ...
  864 atoms
Finding 1-2 1-3 1-4 neighbors ...
     0 = max # of 1-2 neighbors
     0 = max # of 1-3 neighbors
     0 = max # of 1-4 neighbors
     1 = max # of special neighbors
include ff-argon.lmp
#############################
#Atoms types - mass - charge#
#############################
#@ 1 atom types #!THIS LINE IS NECESSARY DON'T SPEND HOURS FINDING THAT OUT!#

variable Ar equal 1

#############
#Atom Masses#
#############

mass 1      39.903

###########################
#Pair Potentials - Tersoff#
###########################

pair_style      lj/cubic
pair_coeff      * * 0.0102701 3.42

velocity all create 10 2357 mom yes dist gaussian
neighbor 1 bin

timestep 0.1

compute myKE all ke
compute myPE all pe

fix lang all gjf 10 10 1 26488

run 5000

CITE-CITE-CITE-CITE-CITE-CITE-CITE-CITE-CITE-CITE-CITE-CITE-CITE

Your simulation uses code contributions which should be cited:

- GJ methods: doi:10.1080/00268976.2019.1662506

@Article{gronbech-jensen_complete_2020,
title = {Complete set of stochastic Verlet-type thermostats for correct Langevin simulations},
volume = {118},
number = {8},
url = {https://www.tandfonline.com/doi/full/10.1080/00268976.2019.1662506},
doi = {10.1080/00268976.2019.1662506},
journal = {Molecular Physics},
author = {Grønbech-Jensen, Niels},
year = {2020}
}

- GJ-I vhalf method: doi:10.1080/00268976.2019.1570369

@Article{jensen_accurate_2019,
title = {Accurate configurational and kinetic statistics in discrete-time Langevin systems},
volume = {117},
url = {https://www.tandfonline.com/doi/full/10.1080/00268976.2019.1570369},
doi = {10.1080/00268976.2019.1570369},
number = {18},
journal = {Molecular Physics},
author = {Jensen, Lucas Frese Grønbech and Grønbech-Jensen, Niels},
year = {2019}
}

CITE-CITE-CITE-CITE-CITE-CITE-CITE-CITE-CITE-CITE-CITE-CITE-CITE

Generated 0 of 0 mixed pair_coeff terms from geometric mixing rule
Step          Temp          E_pair         E_mol          TotEng         Press
0   10            -56.207652      0             -55.092137      33.341103
Loop time of 2.28421 on 1 procs for 5000 steps with 864 atoms

fix energies all ave/time 1 20000 20000 c_myKE c_myPE #file ave.out

thermo 2000
run 35000
Generated 0 of 0 mixed pair_coeff terms from geometric mixing rule
Step          Temp          E_pair         E_mol          TotEng         Press
5000   9.7731898     -55.150518      0             -54.060304      322.94195
Averages over the last 10 of 19 rows, steps 22000 to 40000:
Temp E_pair E_mol TotEng Press
9.98602 -55.1067 0 -53.9928 336.423
Loop time of 19.138 on 1 procs for 35000 steps with 864 atoms
