LAMMPS (2 Apr 2025 - Development - patch_2Apr2025-384-g88bc7dc720-modified)
# May 2025
# Test script for MD-KMC accelerated diffusion testing in LAMMPS
# Created by Jacob Tavenner, Baylor University

# Initiation -------------------------------------
units		metal
dimension	3
boundary	p p p
atom_style	atomic

# Atom Definition --------------------------------
lattice	fcc 3.762
Lattice spacing in x,y,z = 3.762 3.762 3.762
region		whole block 0 1 0 1 0 1
create_box	2 whole
Created orthogonal box = (0 0 0) to (3.762 3.762 3.762)
create_atoms	1 region whole
Created 4 atoms

replicate 6 16 6
Replication is creating a 6x16x6 = 576 times larger system...
  orthogonal box = (0 0 0) to (22.572 60.192 22.572)
  2304 atoms
  replicate CPU = 0.000 seconds

region      puck block INF INF INF 2 INF INF
set         region puck type 2
Setting atom values ...
  360 settings made for type

# Force Fields -----------------------------------
pair_style	meam
pair_coeff	* * library_2nn.meam Mo Co Ni V Fe Al Cr MoCoNiVFeAlCr_2nn.meam Ni Cr
Reading MEAM library file library_2nn.meam with DATE: 2024-08-08
Reading MEAM potential file MoCoNiVFeAlCr_2nn.meam with DATE: 2024-08-08

# Settings ---------------------------------------
timestep	0.002
thermo		100

# Computations -----------------------------------
compute		voroN all voronoi/atom neighbors yes

run		0
For more information see https://docs.lammps.org/err0028 (src/verlet.cpp:60)
Step          Temp          E_pair         E_mol          TotEng         Press
0   0             -9674.3728      0             -9674.3728     -212400.94
Loop time of 1.232e-06 on 1 procs for 0 steps with 2304 atoms

thermo_style	custom step temp press pxx pyy pzz lx ly lz vol pe

# Execution --------------------------------------

velocity    all create 2400 908124 loop geom
fix         temp all npt temp 1000 1000 1000 aniso 0 0 1
fix         mc all neighbor/swap 50 12 1340723 1000 3 voroN diff 2
thermo_style	custom step temp press pxx pyy pzz lx ly lz vol pe f_mc[*]
#dump		dump2 all custom 5000 dump.edge-3_Ni-Cr.* id type x y z c_eng c_csym

run 1000
Step          Temp          Press           Pxx            Pyy            Pzz             Lx             Ly             Lz           Volume         PotEng        f_mc[1]        f_mc[2]
0   2400          -187517.52     -187464.47     -188202.62     -186885.48      22.572         60.192         22.572         30667.534     -9674.3728      0              0
Averages over the last 6 of 11 rows, steps 500 to 1000:
Temp Press Pxx Pyy Pzz Lx Ly Lz Volume PotEng f_mc[1] f_mc[2]
1602.12 -769.916 -1477.63 -215.051 -617.071 21.6756 58.0949 21.6835 27304.7 -9577.54 180 169.833
Loop time of 31.7733 on 1 procs for 1000 steps with 2304 atoms

#write_data	pulse_end.data
