LAMMPS (12 Jun 2025 - Development - patch_12Jun2025-605-g5eb61491f0-modified)
# May 2025
# Test script for MD-KMC accelerated diffusion testing in LAMMPS
# Created by Jacob Tavenner, Baylor University

# Initiation -------------------------------------
units           metal
dimension       3
boundary        p p p
atom_style      atomic

# Atom Definition --------------------------------
lattice fcc 3.762
Lattice spacing in x,y,z = 3.762 3.762 3.762
region          whole block 0 1 0 1 0 1
create_box      2 whole
Created orthogonal box = (0 0 0) to (3.762 3.762 3.762)
create_atoms    1 region whole
Created 4 atoms

replicate 6 16 6
Replication is creating a 6x16x6 = 576 times larger system...
  orthogonal box = (0 0 0) to (22.572 60.192 22.572)
  2304 atoms
  replicate CPU = 0.000 seconds

region      puck block INF INF 7 9 INF INF
set         region puck type 2
Setting atom values ...
  360 settings made for type

# Force Fields -----------------------------------
pair_style      meam
pair_coeff      * * library_2nn.meam Mo Co Ni V Fe Al Cr MoCoNiVFeAlCr_2nn.meam Ni Cr
Reading MEAM library file library_2nn.meam with DATE: 2024-08-08
Reading MEAM potential file MoCoNiVFeAlCr_2nn.meam with DATE: 2024-08-08

# Settings ---------------------------------------
timestep        0.002
thermo          100

# Computations -----------------------------------
compute         voroN all voronoi/atom neighbors yes

run             0
For more information see https://docs.lammps.org/err0028 (src/verlet.cpp:60)
Step          Temp          E_pair         E_mol          TotEng         Press
0   0             -9674.3728      0             -9674.3728     -212400.94
Loop time of 8.62e-07 on 1 procs for 0 steps with 2304 atoms

thermo_style    custom step temp press pxx pyy pzz lx ly lz vol pe

# Execution --------------------------------------

velocity    all create 2400 908124 loop geom
fix         temp all npt temp 1000 1000 1000 aniso 0 0 1
fix         mc all neighbor/swap 50 12 1340723 1000 3 voroN diff 2
thermo_style    custom step temp press pxx pyy pzz lx ly lz vol pe f_mc[*]
#dump           dump2 all custom 5000 dump.edge-3_Ni-Cr.* id type x y z c_eng c_csym

run 1000

CITE-CITE-CITE-CITE-CITE-CITE-CITE-CITE-CITE-CITE-CITE-CITE-CITE

Your simulation uses code contributions which should be cited:

- fix neighbor/swap command: doi:10.1016/j.commatsci.2022.111929

@Article{Tavenner2023111929,
 author = {Jacob P. Tavenner and Mikhail I. Mendelev and John W. Lawson},
 title = {Molecular dynamics based kinetic Monte Carlo simulation for accelerated diffusion},
 journal = {Computational Materials Science},
 year = {2023},
 volume = {218},
 pages = {111929}
 url = {https://dx.doi.org/10.1016/j.commatsci.2022.111929}
}

CITE-CITE-CITE-CITE-CITE-CITE-CITE-CITE-CITE-CITE-CITE-CITE-CITE

Step          Temp          Press           Pxx            Pyy            Pzz             Lx             Ly             Lz           Volume         PotEng        f_mc[1]        f_mc[2]
0   2400          -187517.52     -187464.28     -188202.86     -186885.42      22.572         60.192         22.572         30667.534     -9674.3728      0              0
Averages over the last 6 of 11 rows, steps 500 to 1000:
Temp Press Pxx Pyy Pzz Lx Ly Lz Volume PotEng f_mc[1] f_mc[2]
1593.25 389.312 802.326 438.852 -73.2426 21.6774 58.0864 21.6836 27303 -9574.51 180 165
Loop time of 30.6062 on 1 procs for 1000 steps with 2304 atoms

#write_data     pulse_center.data
