LAMMPS (19 Nov 2024 - Development - patch_19Nov2024-836-ge548c656ce)
# Created 2010-11-28

# General parameters

variable	sname index CH4fc.bohr

units		electron
newton		on
boundary	f f f

atom_style      electron

read_data       data.CH4fc.bohr
Reading data file ...
  orthogonal box = (-1000 -1000 -1000) to (1000 1000 1000)
  reading atoms ...
  13 atoms

pair_style      eff/cut 1000.0
pair_coeff      * *

compute         energies all pair eff/cut
variable        eke equal c_energies[1]
variable        epauli equal c_energies[2]
variable        estatics equal c_energies[3]
variable        errestrain equal c_energies[4]

comm_modify	vel yes

compute         peratom all stress/atom NULL
compute         p all reduce sum c_peratom[1] c_peratom[2] c_peratom[3]
variable        press equal -(c_p[1]+c_p[2]+c_p[3])/(3*vol)

compute         effTemp all temp/eff
compute         effPress all pressure effTemp

thermo          10
thermo_style    custom step etotal pe ke v_eke v_epauli v_estatics v_errestrain temp press v_press
thermo_modify   temp effTemp press effPress

# Minimization

min_style       cg
dump            1 all xyz 10 CH4fc.bohr.min.xyz
compute         1 all property/atom spin eradius erforce
dump            2 all custom 10 CH4fc.bohr.min.lammpstrj id type q c_1[1] c_1[2] x y z fx fy fz c_1[3]
min_modify      line quadratic
minimize        0 1.0e-6 1000 10000

CITE-CITE-CITE-CITE-CITE-CITE-CITE-CITE-CITE-CITE-CITE-CITE-CITE

Your simulation uses code contributions which should be cited:
- EFF package: doi:10.1002/jcc.21637
CITE-CITE-CITE-CITE-CITE-CITE-CITE-CITE-CITE-CITE-CITE-CITE-CITE

Generated 0 of 3 mixed pair_coeff terms from geometric mixing rule
Step         TotEng         PotEng         KinEng         v_eke         v_epauli      v_estatics    v_errestrain       Temp          Press         v_press
0  -28.207572     -28.207572      0              32.949786      9.9929585     -71.150317      0              0              18367.433      18367.433
Loop time of 0.00117173 on 4 procs for 33 steps with 13 atoms

Minimization stats:
  Stopping criterion = force tolerance
  Energy initial, next-to-last, final =
  Force two-norm initial, final = 6.4559548 9.9647483e-07
  Force max component initial, final = 1.2893022 2.0263238e-07
  Final line search alpha, max atom move = 1 2.0263238e-07
  Iterations, force evaluations = 33 40

undump		1
undump		2

# Equilibrate at 300K
velocity        all create 10000.0 4928459 rot yes mom yes dist gaussian

timestep        0.001

dump            1 all custom 1000 CH4fc.bohr.nvt.lammpstrj id type q c_1[1] c_1[2] x y z fx fy fz c_1[3]
#fix		0 all langevin/eff 300.0 300.0 0.1
fix             1 all nvt/eff temp 10000.0 10000.0 0.1

run             40000
Generated 0 of 3 mixed pair_coeff terms from geometric mixing rule
Step         TotEng         PotEng         KinEng         v_eke         v_epauli      v_estatics    v_errestrain       Temp          Press         v_press
33  -33.504437     -34.074464      0.57002676     33.127695      0.9471051     -68.149264      0              30000          1397.5624      1397.5624
Averages over the last 2001 of 4002 rows, steps 20040 to 40033:
TotEng PotEng KinEng v_eke v_epauli v_estatics v_errestrain Temp Press v_press
-33.4619 -33.6571 0.195219 32.1297 1.00568 -66.7925 0 10274.2 73.2208 -44.301
Loop time of 0.506235 on 4 procs for 40000 steps with 13 atoms
