LAMMPS (19 Nov 2024)
# Removing Binned Velocities of Center of Mass (VCM) from Stress

# This example shows how to remove rigid body motion from
# binned stress calculations. This uses a combination of commands
# from compute chunk/atom, compute temp/chunk, compute
# stress/atom and fix ave/time. We'll show how these commands
# work in the context of a shockwave experiment on a cube of
# atoms. To shock the cube, a rectangular region of atoms is
# frozen, moved into the cube with a constant velocity along the
# x direction, and then unfrozen. As the shockwave begins
# propagating, the body of the cube also moves along the x
# direction. To better understand the stress dynamics of the
# cube we remove the velocity component belonging to the overall
# motion of each bin.

units		    metal
boundary        p p p
atom_style	    atomic
lattice		    fcc 5.3589
Lattice spacing in x,y,z = 5.3589 5.3589 5.3589
processors 		1 * *

# Defining regions for box and atoms.
# In this experiment an elongated simulation cell is
# defined in the x direction to allow for non-periodic
# motion of the atoms.

region		    box1 block -3 24 0 12 0 12 units lattice
region		    box2 block 0 12 0 12 0 12 units lattice

# Creating box and atoms

create_box	    1 box1
Created orthogonal box = (-16.0767 0 0) to (128.6136 64.3068 64.3068)
create_atoms    1 region box2
Created 7200 atoms

mass		    1 40.00

# Adding energy to the system

velocity        all create 600.0 9999

pair_style	    lj/cut 10
pair_coeff	    1 1 0.04 3.405

# Begin time integration

timestep        2e-3

fix	            fix_nve all nve

thermo		    100

run             500
Generated 0 of 0 mixed pair_coeff terms from geometric mixing rule
Step          Temp          E_pair         E_mol          TotEng         Press
0   600           -2252.7567      0             -1694.4304     -974.62456
Loop time of 3.01696 on 1 procs for 500 steps with 7200 atoms

#------------------------------------#
# Chunk, Stress, and VCM removal steps
#------------------------------------#

# 1. Create 20 equispaced bins sliced along the x direction.
# "units reduced" normalizes the distance from 0 to 1
variable        nbins index 20
variable        fraction equal 1.0/v_nbins
variable        volfrac equal 1/(vol*0.05)
compute         ch_id all chunk/atom bin/1d x lower 0.05 units reduced

# 2. Calculate temperature bins with VCM aka COM velocities removed.
compute         ch_temp_vcm all temp/chunk ch_id com yes

# 3. Compute per atom stress with VCM removed via temp-ID.
# The velocities from specified temp-ID are used to compute stress
# Stress/atom units are pressure*volume! Optionally handled next step.
compute         atom_stress_vcm all stress/atom ch_temp_vcm

# 4. Divide out bin volume from xx stress component.
variable        stress atom -(c_atom_stress_vcm[1])/(vol*0.05)

# 5. Sum the per atom stresses in each bin.
compute         ch_stress_vcm all reduce/chunk ch_id sum v_stress

# 6. Average and output to file.
# The average output is every 100 steps with samples collected 20 times with 5 step intervals
# fix             ave_stress_vcm all ave/time 5 20 100 c_ch_stress_vcm mode vector file stress_xx.out

#------------------------------------#

# Piston compressing along x direction

region 			piston block -1 1 INF INF INF INF units lattice
group          	piston region piston
863 atoms in group piston
fix 			fix_piston piston move linear 5 0 0 units box # strain rate ~ 8e10 1/s

thermo_style    custom step temp ke pe lx ly lz pxx pyy pzz econserve

# Atom dump

# dump		    atom_dump all atom 50 dump.vcm

# # Image dumps

# dump		    2 all image 250 image.*.jpg type type # 		        axes yes 0.8 0.02 view 60 -30
# dump_modify	    2 pad 1

# # Movie dump

# dump		    3 all movie 125 movie.avi type type # 		        axes yes 0.8 0.02 view 60 -30
# dump_modify	    3 pad 1

run	            500
Generated 0 of 0 mixed pair_coeff terms from geometric mixing rule
Step          Temp          KinEng         PotEng           Lx             Ly             Lz            Pxx            Pyy            Pzz         Econserve
500   295.00895      274.51875     -1982.4224      144.6903       64.3068        64.3068        631.89976      1127.2965      1135.6616     -1707.9036
Loop time of 3.09383 on 1 procs for 500 steps with 7200 atoms

unfix           fix_piston

run             1500
Generated 0 of 0 mixed pair_coeff terms from geometric mixing rule
Step          Temp          KinEng         PotEng           Lx             Ly             Lz            Pxx            Pyy            Pzz         Econserve
1000   684.07997      636.56636     -1868.1639      144.6903       64.3068        64.3068        7734.6158      5271.3524      5272.1276     -1231.5975
Averages over the last 8 of 16 rows, steps 1800 to 2500:
Temp KinEng PotEng Lx Ly Lz Pxx Pyy Pzz Econserve
613.577 570.96 -1782.86 144.69 64.3068 64.3068 317.953 -318.481 -339.991 -1211.9
Loop time of 9.34327 on 1 procs for 1500 steps with 7200 atoms
