LAMMPS (12 Jun 2025 - Development - patch_12Jun2025-212-g4bf7191833)
# SPC/E water with hybrid mc/md via fix hmc, using its rigid option

units           real
boundary        p p p
atom_style      full

read_data       data.hmc.spce
Reading data file ...
  orthogonal box = (-1.2 -1.2 -1.2) to (1.2 1.2 1.2)
  reading atoms ...
  3 atoms
  scanning bonds ...
  scanning angles ...
  orthogonal box = (-1.2 -1.2 -1.2) to (1.2 1.2 1.2)
  reading bonds ...
  2 bonds
  reading angles ...
  1 angles
Finding 1-2 1-3 1-4 neighbors ...
     2 = max # of 1-2 neighbors
     1 = max # of 1-3 neighbors
     1 = max # of 1-4 neighbors
     2 = max # of special neighbors
replicate       4 4 4
Replication is creating a 4x4x4 = 64 times larger system...
  orthogonal box = (-1.2 -1.2 -1.2) to (8.4 8.4 8.4)
  192 atoms
  128 bonds
  64 angles
Finding 1-2 1-3 1-4 neighbors ...
     2 = max # of 1-2 neighbors
     1 = max # of 1-3 neighbors
     1 = max # of 1-4 neighbors
     2 = max # of special neighbors
  replicate CPU = 0.001 seconds

mass            1 15.9994
mass            2 1.00784

neighbor        2.0 bin
neigh_modify    every 1 delay 0 check yes

pair_style      lj/cut/coul/long 9.0
pair_modify     tail yes mix arithmetic
kspace_style    pppm 1.0e-5

pair_coeff      1 1 0.1554015 3.166
pair_coeff      2 2 0 0

bond_style      harmonic
bond_coeff      1 554.1349 1.000

angle_style     harmonic
angle_coeff     1 45.7696 109.47

timestep        1.0

thermo          100
#dump            1 all atom 10 dump.hmc_rigid

fix             1 all rigid/small molecule
Fix rigid/small setup ...
  64 rigid bodies with 192 atoms
  0.95789707 = max distance from body owner to body atom

# equilibrate a bit
run             1000
PPPM initialization ...
  G vector (1/distance) = 0.3592552
  grid = 12 12 12
  stencil order = 5
  estimated absolute RMS force accuracy = 0.0015096129
  estimated relative force accuracy = 4.5461544e-06
  3d grid and FFT values/proc = 3211 432
Generated 1 of 1 mixed pair_coeff terms from arithmetic mixing rule
Step          Temp          E_pair         E_mol          TotEng         Press
0   0              2848.4636      151.27379      2999.7374      1031168.7
Averages over the last 6 of 11 rows, steps 500 to 1000:
Temp E_pair E_mol TotEng Press
3943.16 1359.83 151.274 3003.83 730999
Loop time of 1.28915 on 4 procs for 1000 steps with 192 atoms

# start HMC run

timestep        3.0  # large timestep
fix             2 all hmc 200 654123 300.0 rigid 1

thermo_style    custom step temp pe ke etotal f_2 f_2[*]

run             5000
PPPM initialization ...
  G vector (1/distance) = 0.3592552
  grid = 12 12 12
  stencil order = 5
  estimated absolute RMS force accuracy = 0.0015096129
  estimated relative force accuracy = 4.5461544e-06
  3d grid and FFT values/proc = 3211 432
Generated 1 of 1 mixed pair_coeff terms from arithmetic mixing rule
Step          Temp          PotEng         KinEng         TotEng          f_2           f_2[1]         f_2[2]         f_2[3]         f_2[4]         f_2[5]
1000   293.43701      1661.8338      111.08436      1772.9182      0              0              0              0              0              0
Averages over the last 26 of 51 rows, steps 3500 to 6000:
Temp PotEng KinEng TotEng f_2 f_2[1] f_2[2] f_2[3] f_2[4] f_2[5]
354.344 172.524 134.141 306.665 0.680785 12.7692 18.5 -3.77392 3.78526 0.0113357
Loop time of 7.21406 on 4 procs for 5000 steps with 192 atoms
