LAMMPS (12 Jun 2025 - Development - patch_12Jun2025-204-ga1261a54c3-modified)
# SPC/E water with hybrid mc/md via fix hmc, using its rigid option

units           real
boundary        p p p
atom_style      full

read_data       data.hmc.spce
Reading data file ...
  orthogonal box = (-1.2 -1.2 -1.2) to (1.2 1.2 1.2)
  reading atoms ...
  3 atoms
  scanning bonds ...
  scanning angles ...
  orthogonal box = (-1.2 -1.2 -1.2) to (1.2 1.2 1.2)
  reading bonds ...
  2 bonds
  reading angles ...
  1 angles
Finding 1-2 1-3 1-4 neighbors ...
     2 = max # of 1-2 neighbors
     1 = max # of 1-3 neighbors
     1 = max # of 1-4 neighbors
     2 = max # of special neighbors
replicate       4 4 4
Replication is creating a 4x4x4 = 64 times larger system...
  orthogonal box = (-1.2 -1.2 -1.2) to (8.4 8.4 8.4)
  192 atoms
  128 bonds
  64 angles
Finding 1-2 1-3 1-4 neighbors ...
     2 = max # of 1-2 neighbors
     1 = max # of 1-3 neighbors
     1 = max # of 1-4 neighbors
     2 = max # of special neighbors
  replicate CPU = 0.002 seconds

mass            1 15.9994
mass            2 1.00784

neighbor        2.0 bin
neigh_modify    every 1 delay 0 check yes

pair_style      lj/cut/coul/long 9.0
pair_modify     tail yes mix arithmetic
kspace_style    pppm 1.0e-5

pair_coeff      1 1 0.1554015 3.166
pair_coeff      2 2 0 0

bond_style      harmonic
bond_coeff      1 554.1349 1.000

angle_style     harmonic
angle_coeff     1 45.7696 109.47

timestep        1.0

thermo          100
#dump           1 all atom 100 dump.hmc_rigid

fix             1 all rigid/small molecule
Fix rigid/small setup ...
  64 rigid bodies with 192 atoms
  0.95789707 = max distance from body owner to body atom

# equilibrate a bit

run             500
PPPM initialization ...
  G vector (1/distance) = 0.3592552
  grid = 12 12 12
  stencil order = 5
  estimated absolute RMS force accuracy = 0.0015096129
  estimated relative force accuracy = 4.5461544e-06
  3d grid and FFT values/proc = 6859 1728
Generated 1 of 1 mixed pair_coeff terms from arithmetic mixing rule
Step          Temp          E_pair         E_mol          TotEng         Press
0   0              2848.4636      151.27379      2999.7374      1031168.7
Loop time of 0.721084 on 1 procs for 500 steps with 192 atoms

# start HMC run

timestep        5.0  # large timestep
fix             2 all hmc 200 654123 300.0 rigid 1

thermo_style    custom step temp pe ke etotal f_2 f_2[*]

run             5000
PPPM initialization ...
  G vector (1/distance) = 0.3592552
  grid = 12 12 12
  stencil order = 5
  estimated absolute RMS force accuracy = 0.0015096129
  estimated relative force accuracy = 4.5461544e-06
  3d grid and FFT values/proc = 6859 1728
Generated 1 of 1 mixed pair_coeff terms from arithmetic mixing rule
Step          Temp          PotEng         KinEng         TotEng          f_2           f_2[1]         f_2[2]         f_2[3]         f_2[4]         f_2[5]
500   295.23964      1589.3877      111.76677      1701.1544      0              0              0              0              0              0
Averages over the last 26 of 51 rows, steps 3000 to 5500:
Temp PotEng KinEng TotEng f_2 f_2[1] f_2[2] f_2[3] f_2[4] f_2[5]
1167.53 1271.54 441.984 1713.52 0 0 19 -580.684 726.273 145.589
Loop time of 13.7234 on 1 procs for 5000 steps with 192 atoms
