LAMMPS (12 Jun 2025 - Development - patch_12Jun2025-212-g4bf7191833)
# 3d Lennard-Jones melt with hybrid mc/md via fix hmc

units           lj
atom_style      atomic

lattice         fcc 0.8442
Lattice spacing in x,y,z = 1.6795962 1.6795962 1.6795962
region          box block 0 5 0 5 0 5
create_box      1 box
Created orthogonal box = (0 0 0) to (8.397981 8.397981 8.397981)
create_atoms    1 box
Created 500 atoms
mass            1 1.0

pair_style      lj/cut 2.5
pair_coeff      1 1 1.0 1.0 2.5

neighbor        0.3 bin
neigh_modify    every 2 delay 4 check yes
velocity        all create 3.0 321654 loop geom

fix             1 all nve

thermo          50
run             1000  # equilibrate a bit
Generated 0 of 0 mixed pair_coeff terms from geometric mixing rule
Step          Temp          E_pair         E_mol          TotEng         Press
0   3             -6.7733681      0             -2.2823681     -3.7077825
Averages over the last 11 of 21 rows, steps 500 to 1000:
Temp E_pair E_mol TotEng Press
1.64659 -4.75272 0 -2.28778 5.83039
Loop time of 0.293126 on 1 procs for 1000 steps with 500 atoms

fix             2 all hmc 100 6234 1.5 resample yes

#dump           id all atom 50 dump.melt

#dump           2 all image 25 image.*.jpg type type #               axes yes 0.8 0.02 view 60 -30
#dump_modify    2 pad 3

#dump           3 all movie 25 movie.mpg type type #               axes yes 0.8 0.02 view 60 -30
#dump_modify    3 pad 3

thermo_style    custom step temp pe ke etotal f_2 f_2[*]

timestep        0.005
run             50000
Generated 0 of 0 mixed pair_coeff terms from geometric mixing rule
Step          Temp          PotEng         KinEng         TotEng          f_2           f_2[1]         f_2[2]         f_2[3]         f_2[4]         f_2[5]
1000   1.5402189     -4.7440077      2.3057076     -2.4383         0              0              0              0              0              0
Averages over the last 501 of 1001 rows, steps 26000 to 51000:
Temp PotEng KinEng TotEng f_2 f_2[1] f_2[2] f_2[3] f_2[4] f_2[5]
1.5033 -4.86726 2.25044 -2.61683 0.46382 172.635 374.75 0.302989 3.32445 3.62744
Loop time of 16.4735 on 1 procs for 50000 steps with 500 atoms
