LAMMPS (19 Nov 2024 - Development - patch_19Nov2024-836-ge548c656ce)
variable	sname index adamantane_ionized

units 		electron
newton		on
boundary        f f f

atom_style	electron

read_data  	data.adamantane_ionized
Reading data file ...
  orthogonal box = (-50 -50 -50) to (50 50 50)
  reading atoms ...
  101 atoms

pair_style      eff/cut 100.0
pair_coeff 	* *

comm_modify	vel yes

compute		effTemp all temp/eff

thermo		1000
thermo_style	custom step pe temp etotal press
thermo_modify	temp effTemp

# Minimization
min_style       cg
dump            1 all xyz 500 adamantane_ionized.min.xyz
compute         1 all property/atom spin eradius erforce
dump            2 all custom 500 adamantane_ionized.min.lammpstrj id type x y z c_1[1] c_1[2] fx fy fz c_1[3]
min_modify	line quadratic
minimize        0.0 1.0e-5 10000 100000

CITE-CITE-CITE-CITE-CITE-CITE-CITE-CITE-CITE-CITE-CITE-CITE-CITE

Your simulation uses code contributions which should be cited:

- EFF package: doi:10.1002/jcc.21637

@Article{Jaramillo-Botero11,
 author = {A. Jaramillo-Botero and J. Su and A. Qi and Goddard, III, W. A.},
 title = {Large-Scale, Long-Term Nonadiabatic Electron Molecular Dynamics for Describing Material Properties and Phenomena in Extreme Environments},
 journal = {J.~Comp.\ Chem.},
 year =    2011,
 volume =  32,
 number =  3,
 pages =   {497--512}
}

CITE-CITE-CITE-CITE-CITE-CITE-CITE-CITE-CITE-CITE-CITE-CITE-CITE

Generated 0 of 3 mixed pair_coeff terms from geometric mixing rule
Step         PotEng          Temp          TotEng         Press
0  -320.50186      0             -320.50186     -45590269
Loop time of 0.883439 on 4 procs for 493 steps with 101 atoms

Minimization stats:
  Stopping criterion = linesearch alpha is zero
  Energy initial, next-to-last, final =
  Force two-norm initial, final = 2.8135352 1.2148731
  Force max component initial, final = 1.7194878 1.1232786
  Final line search alpha, max atom move = 4.245048e-09 4.7683716e-09
  Iterations, force evaluations = 493 3804

undump		1
undump		2

#restart		timestep

# set velocities for nve
#velocity	all create 300.0 4928459 dist uniform

# NVE
timestep	0.0001

fix		1 all nve/eff
dump            1 all xyz 1000 adamantane_ionized.nve.xyz
dump            2 all custom 1000 adamantane_ionized.nve.lammpstrj id type x y z c_1[1] c_1[2] fx fy fz c_1[3]

run		200000
Generated 0 of 3 mixed pair_coeff terms from geometric mixing rule
Step         PotEng          Temp          TotEng         Press
493  -324.31743      0             -324.31743      20971271
Averages over the last 101 of 202 rows, steps 101000 to 200493:
PotEng Temp TotEng Press
-324.343 4390.03 -323.822 1.14041e+06
Loop time of 42.6156 on 4 procs for 200000 steps with 101 atoms

unfix		1
undump		1
undump		2
