LAMMPS (19 Nov 2024 - Development - patch_19Nov2024-836-ge548c656ce)

# Created 2010-12-13

# General parameters

variable	sname index C2H6fc.ang

units		real
newton		on
boundary	f f f

atom_style      electron

read_data       data.C2H6fc.ang
Reading data file ...
  orthogonal box = (-529.17725 -529.17725 -529.17725) to (529.17725 529.17725 529.17725)
  reading atoms ...
  22 atoms

pair_style      eff/cut 529.177249
pair_coeff      * *

compute         energies all pair eff/cut
variable        eke equal c_energies[1]
variable        epauli equal c_energies[2]
variable        estatics equal c_energies[3]
variable        errestrain equal c_energies[4]

comm_modify	vel yes

compute         peratom all stress/atom NULL
compute         p all reduce sum c_peratom[1] c_peratom[2] c_peratom[3]
variable        press equal -(c_p[1]+c_p[2]+c_p[3])/(3*vol)

compute         effTemp all temp/eff
compute         effPress all pressure effTemp

thermo		100
thermo_style    custom step etotal pe ke v_eke v_epauli v_estatics v_errestrain temp press v_press
thermo_modify   temp effTemp press effPress

# Minimization

min_style       cg
dump            1 all xyz 100 C2H6fc.ang.min.xyz
compute         1 all property/atom spin eradius erforce
dump            2 all custom 100 C2H6fc.ang.min.lammpstrj id type q c_1[1] c_1[2] x y z fx fy fz c_1[3]
dump            3 all custom 100 data.C2H6fc.ang.restart id type q c_1[1] c_1[2] x y z
min_modify      line quadratic
minimize        0 1e-6 1000 2000

CITE-CITE-CITE-CITE-CITE-CITE-CITE-CITE-CITE-CITE-CITE-CITE-CITE

Your simulation uses code contributions which should be cited:
- EFF package: doi:10.1002/jcc.21637
CITE-CITE-CITE-CITE-CITE-CITE-CITE-CITE-CITE-CITE-CITE-CITE-CITE

Generated 0 of 3 mixed pair_coeff terms from geometric mixing rule
Step         TotEng         PotEng         KinEng         v_eke         v_epauli      v_estatics    v_errestrain       Temp          Press         v_press
0  -42170.096     -42170.096      0              40905.668      1266.6656     -84342.43       0              0              0.00015006376  0.00015006376
Loop time of 0.0027885 on 4 procs for 63 steps with 22 atoms

Minimization stats:
  Stopping criterion = force tolerance
  Energy initial, next-to-last, final =
  Force two-norm initial, final = 11.287758 4.0839932e-07
  Force max component initial, final = 7.4454037 1.4098828e-07
  Final line search alpha, max atom move = 1 1.4098828e-07
  Iterations, force evaluations = 63 126

undump		1
undump		2
undump          3

# Equilibrate at 5000K
velocity        all create 1.0 4928459 rot yes mom yes dist gaussian

timestep	0.001

fix             1 all nvt/eff temp 1.0 10000.0 1.0
dump            2 all custom 100 C2H6fc.ang.nvt.lammpstrj id type q c_1[1] c_1[2] x y z fx fy fz c_1[3]

run             100000
Generated 0 of 3 mixed pair_coeff terms from geometric mixing rule
Step         TotEng         PotEng         KinEng         v_eke         v_epauli      v_estatics    v_errestrain       Temp          Press         v_press
63  -42170.068     -42170.131      0.062597011    40904.925      1264.1249     -84339.181      0              3              2.4137671e-06  2.4137671e-06
Averages over the last 501 of 1002 rows, steps 50100 to 100063:
TotEng PotEng KinEng v_eke v_epauli v_estatics v_errestrain Temp Press v_press
-41845.7 -42006.5 160.729 40505.5 1253.29 -83765.2 0 7703.02 0.00111462 0.000671871
Loop time of 1.73627 on 4 procs for 100000 steps with 22 atoms
